<?xml version='1.0' encoding='utf-8'?>
<routes>
    <vType id="car" accel="2.6" decel="4.5" sigma="0.5" length="5.0" maxSpeed="15.0" guiShape="passenger" color="1,1,0" />
    <vType id="emergency" accel="3.0" decel="5.0" sigma="0.3" length="6.0" maxSpeed="20.0" guiShape="emergency" color="1,0,0" />
    <route id="route_ns" edges="north south" />
    <route id="route_sn" edges="south north" />
    <route id="route_ew" edges="east west" />
    <route id="route_we" edges="west east" />
    <vehicle id="veh_0" type="car" route="route_sn" depart="0" departLane="best" departSpeed="max" />
    <vehicle id="veh_1" type="car" route="route_we" depart="4.84251103137845" departLane="best" departSpeed="max" />
    <vehicle id="veh_2" type="car" route="route_sn" depart="10.377745601271876" departLane="best" departSpeed="max" />
    <vehicle id="veh_3" type="car" route="route_we" depart="18.10267745361753" departLane="best" departSpeed="max" />
    <vehicle id="veh_4" type="car" route="route_we" depart="26.004965405273175" departLane="best" departSpeed="max" />
    <vehicle id="veh_5" type="car" route="route_sn" depart="32.803446864374436" departLane="best" departSpeed="max" />
    <vehicle id="veh_6" type="car" route="route_ew" depart="39.45558151285522" departLane="best" departSpeed="max" />
    <vehicle id="veh_7" type="car" route="route_we" depart="44.28040869680345" departLane="best" departSpeed="max" />
    <vehicle id="veh_8" type="car" route="route_sn" depart="51.60900332151293" departLane="best" departSpeed="max" />
    <vehicle id="veh_9" type="car" route="route_ew" depart="56.75078281003476" departLane="best" departSpeed="max" />
    <vehicle id="veh_10" type="car" route="route_sn" depart="64.1669872177182" departLane="best" departSpeed="max" />
    <vehicle id="veh_11" type="car" route="route_ns" depart="71.67904436332175" departLane="best" departSpeed="max" />
    <vehicle id="veh_12" type="car" route="route_sn" depart="79.58508103692401" departLane="best" departSpeed="max" />
    <vehicle id="veh_13" type="car" route="route_ns" depart="86.53789490760416" departLane="best" departSpeed="max" />
    <vehicle id="veh_14" type="car" route="route_we" depart="91.61800723756464" departLane="best" departSpeed="max" />
    <vehicle id="veh_15" type="car" route="route_ns" depart="96.74343286828324" departLane="best" departSpeed="max" />
    <vehicle id="veh_16" type="car" route="route_we" depart="101.17532222274338" departLane="best" departSpeed="max" />
    <vehicle id="veh_17" type="car" route="route_we" depart="107.45753772067778" departLane="best" departSpeed="max" />
    <vehicle id="veh_18" type="car" route="route_sn" depart="113.30552144373601" departLane="best" departSpeed="max" />
    <vehicle id="veh_19" type="car" route="route_we" depart="119.98364767862412" departLane="best" departSpeed="max" />
    <vehicle id="veh_20" type="car" route="route_ew" depart="126.57427457917868" departLane="best" departSpeed="max" />
    <vehicle id="veh_21" type="car" route="route_sn" depart="133.6394009346398" departLane="best" departSpeed="max" />
    <vehicle id="veh_22" type="car" route="route_ns" depart="138.3432687859315" departLane="best" departSpeed="max" />
    <vehicle id="veh_23" type="car" route="route_we" depart="143.35861987699766" departLane="best" departSpeed="max" />
    <vehicle id="veh_24" type="car" route="route_sn" depart="150.80407450435837" departLane="best" departSpeed="max" />
    <vehicle id="veh_25" type="car" route="route_ew" depart="155.63723757691267" departLane="best" departSpeed="max" />
    <vehicle id="veh_26" type="car" route="route_sn" depart="161.1305295398288" departLane="best" departSpeed="max" />
    <vehicle id="veh_27" type="car" route="route_ew" depart="168.79096127964775" departLane="best" departSpeed="max" />
    <vehicle id="veh_28" type="car" route="route_sn" depart="175.48856510704633" departLane="best" departSpeed="max" />
    <vehicle id="veh_29" type="car" route="route_sn" depart="181.47646175723273" departLane="best" departSpeed="max" />
    <vehicle id="veh_30" type="car" route="route_sn" depart="186.48143135644463" departLane="best" departSpeed="max" />
    <vehicle id="veh_31" type="car" route="route_ew" depart="193.01855601623978" departLane="best" departSpeed="max" />
    <vehicle id="veh_32" type="car" route="route_sn" depart="198.45066393641562" departLane="best" departSpeed="max" />
    <vehicle id="veh_33" type="car" route="route_ns" depart="202.67171466870377" departLane="best" departSpeed="max" />
    <vehicle id="veh_34" type="car" route="route_ew" depart="207.54876511829042" departLane="best" departSpeed="max" />
    <vehicle id="veh_35" type="car" route="route_ns" depart="212.46078773378957" departLane="best" departSpeed="max" />
    <vehicle id="veh_36" type="car" route="route_ns" depart="220.4086747741749" departLane="best" departSpeed="max" />
    <vehicle id="veh_37" type="car" route="route_ew" depart="228.31426507150329" departLane="best" departSpeed="max" />
    <vehicle id="veh_38" type="car" route="route_we" depart="232.76903806145134" departLane="best" departSpeed="max" />
    <vehicle id="veh_39" type="car" route="route_ew" depart="240.13214365868453" departLane="best" departSpeed="max" />
    <vehicle id="veh_40" type="car" route="route_sn" depart="244.87085767104102" departLane="best" departSpeed="max" />
    <vehicle id="veh_41" type="car" route="route_ns" depart="251.8471448852522" departLane="best" departSpeed="max" />
    <vehicle id="veh_42" type="car" route="route_we" depart="257.99124170603545" departLane="best" departSpeed="max" />
    <vehicle id="veh_43" type="car" route="route_ew" depart="265.34628796447305" departLane="best" departSpeed="max" />
    <vehicle id="veh_44" type="car" route="route_ns" depart="270.81074027717983" departLane="best" departSpeed="max" />
    <vehicle id="veh_45" type="car" route="route_ew" depart="275.59218204014525" departLane="best" departSpeed="max" />
    <vehicle id="veh_46" type="car" route="route_ew" depart="283.03565414022233" departLane="best" departSpeed="max" />
    <vehicle id="veh_47" type="car" route="route_sn" depart="290.588007826077" departLane="best" departSpeed="max" />
    <vehicle id="veh_48" type="car" route="route_we" depart="295.18730537843953" departLane="best" departSpeed="max" />
    <vehicle id="veh_49" type="car" route="route_we" depart="299.97644324371464" departLane="best" departSpeed="max" />
</routes>